/*--------------------------------*- C++ -*----------------------------------*\
  =========                 |				
  \\      /  F ield         | OpenFOAM: The Open Source CFD Toolbox
   \\    /   O peration     | Website:  https://openfoam.org
    \\  /    A nd           | Version:  9                                   	
     \\/     M anipulation  |
\*---------------------------------------------------------------------------*/
FoamFile
{
    format      ascii;
    class       dictionary;
    object      fvSchemes;
}
// * * * * * * * * * * * * * * * * * * * * * * * * * * * * * * * * * * * * * //

ddtSchemes
{
    default         steadyState;
}

gradSchemes
{
    //default         Gauss linear;
    //grad(p)         Gauss linear;
    //grad(U)         Gauss linear;

    default          cellLimited Gauss linear 0.5;
}

divSchemes
{
    default         none;

    div(phi,U)      bounded Gauss linearUpwind default;
    //div(phi,U)      Gauss linear;
    //div(phi,U)      bounded Gauss limitedLinearV 1;
    //div(phi,U)      Gauss upwind;


    //div(phi,k) Gauss linearUpwind grad(k);
    //div(phi,omega) Gauss linearUpwind grad(omega);


    div(phi,k) 		bounded Gauss upwind;
    div(phi,omega) 	bounded Gauss upwind;

    div((nuEff*dev2(T(grad(U))))) Gauss linear;
}

laplacianSchemes
{
      default         Gauss linear limited 0.5;
}

interpolationSchemes
{
    default         linear;
}

snGradSchemes
{
    default         limited 0.5;
}

wallDist
{
    method	    meshWave;
}

// ************************************************************************* //
