/*--------------------------------*- C++ -*----------------------------------*\
  =========                 |				
  \\      /  F ield         | OpenFOAM: The Open Source CFD Toolbox
   \\    /   O peration     | Website:  https://openfoam.org
    \\  /    A nd           | Version:  9                                   	
     \\/     M anipulation  |
\*---------------------------------------------------------------------------*/
FoamFile
{
    format      ascii;
    class       dictionary;
    object      fvSolution;
}
// * * * * * * * * * * * * * * * * * * * * * * * * * * * * * * * * * * * * * //

solvers
{
    p
    {
/*
        solver          PCG;
	preconditioner 	DIC;
	tolerance	1e-6;
        relTol		0.01;
*/

        solver           GAMG;
        tolerance        1e-6;
        relTol           0.01;
        smoother         GaussSeidel;
        nPreSweeps       0;
        nPostSweeps      2;
        cacheAgglomeration on;
        agglomerator     faceAreaPair;
        nCellsInCoarsestLevel 100;
        mergeLevels      1;
	minIter		 3;
    }

    U
    {

        //solver           smoothSolver;
        //smoother         GaussSeidel;
        //tolerance        1e-8;
        //relTol           0.0;
        //nSweeps          1;

        solver          PBiCGStab;
        preconditioner  DILU;
        tolerance       1e-08;
        relTol          0.001;
    }

    k
    {
        //solver          smoothSolver;
        //smoother 	  GaussSeidel;

        solver          PBiCGStab;
        preconditioner  DILU;
	tolerance       1e-08;
        relTol          0.001;
        //relTol          0;
    }

    omega
    {
        //solver          smoothSolver;
        //smoother 	  GaussSeidel;
     
	solver          PBiCGStab;
        preconditioner  DILU;
	tolerance       1e-08;
        relTol          0.001;
        //relTol          0;
    }

}

SIMPLE
{
	consistent	yes;
    nNonOrthogonalCorrectors 3;
    pRefCell        0;
    pRefValue       0;

    consistent on; //true

    residualControl
    {
        p               1e-4;
        U               1e-4;
        k               1e-3;
        omega           1e-3;
    }
}

//SIMPLE consistent

relaxationFactors
{
    fields
    {
        //p               0.3;
	".*"		0.7;
    }
    equations
    {
	".*"		0.7;
        //p               0.7;
        //U               0.7;
        //k               0.7;
        //omega           0.7;
	//nut		  0.7;
    }
}

//SIMPLE
/*
relaxationFactors
{
    fields
    {
        p               0.3;
    }
    equations
    {
        p               0.3;
        U               0.7;
        k               0.7;
        omega           0.7;
	nut		0.7;
    }
}
*/

// ************************************************************************* //
